Program Version,EnergyPlus, Version 9.4.0-998c4b761e, YMD=2026.03.04 19:36,
   ************* Beginning Zone Sizing Calculations
   ** Warning ** Site:GroundTemperature:BuildingSurface: Some values fall outside the range of 15-25C.
   **   ~~~   ** These values may be inappropriate.  Please consult the Input Output Reference for more details.
   ** Warning ** CheckConvexity: Surface="0PBW99AFX7I8WRP5NR0BMH", Collinear points have been removed.
   ** Warning ** CheckConvexity: Surface="0PBW99AFX7I8WRP5NR0BMH": The vertex points has been reprocessed as Sides = 4
   ** Warning ** GetSurfaceData: Construction BPS-INNERFLOOR_3_0.04_0.06_0.16 of interzone surface 2PGK3DPJSC39TXKGXE$HQ4 does not have the same materials in the reverse order as the construction BPS-INNERFLOOR_3_0.04_0.06_0.16 of adjacent surface 0VSCZAFTJ3T7_0IAKSQJ3Z
   **   ~~~   ** or the properties of the reversed layers are not correct due to differing layer front and back side values
   **   ~~~   ** ...but Nominal U values are similar, diff=[0.0000] ... simulation proceeds.
   **   ~~~   ** ...if the two zones are expected to have significantly different temperatures, the proper "reverse" construction should be created.
   **   ~~~   ** ...this problem for this pair will not be reported again.
   ** Warning ** GetSurfaceData: There are 1 coincident/collinear vertices; These have been deleted unless the deletion would bring the number of surface sides < 3.
   **   ~~~   ** For explicit details on each problem surface, use Output:Diagnostics,DisplayExtraWarnings;
   ** Warning ** CalculateZoneVolume: The Zone="0LT8GR_E9ESEGH5UY_G9E9" is not fully enclosed. To be fully enclosed, each edge of a surface must also be an edge on one other surface.
   **   ~~~   **   The zone volume was calculated using the floor area times ceiling height method where the floor is horizontal, the walls are vertical, and the wall heights are all the same.
   **   ~~~   **   The surface    "3GVJZXXDGLJ3KDERHHKFU_" has an edge that is either not an edge on another surface or is an edge on three or more surfaces: 
   **   ~~~   **     Vertex start { 7.6500, 4.0100, 2.5000}
   **   ~~~   **     Vertex end   { 11.7000, 4.0100, 2.5000}
   ** Warning ** CalculateZoneVolume: The Zone="2DQFGGKBB1FOC1CQZDIDLX" is not fully enclosed. To be fully enclosed, each edge of a surface must also be an edge on one other surface.
   **   ~~~   **   The zone volume was provided as an input to the ZONE object 
   **   ~~~   **   The surface    "0IVLCYUFM86KH6VPLEFX4L" has an edge that is either not an edge on another surface or is an edge on three or more surfaces: 
   **   ~~~   **     Vertex start { 7.4100, 4.2300, 2.7000}
   **   ~~~   **     Vertex end   { 3.8000, 4.2300, 2.7000}
   **   ~~~   **   The surface    "0J0JBR2DBDTENCUT0MTMIR" has an edge that is either not an edge on another surface or is an edge on three or more surfaces: 
   **   ~~~   **     Vertex start { 3.8000, 4.2300, 2.7000}
   **   ~~~   **     Vertex end   { 3.5700, 4.2300, 2.7000}
   ** Warning ** CheckUsedConstructions: There are 5 nominally unused constructions in input.
   **   ~~~   ** Each Unused construction is shown.
   ************* Construction=PROJECT PARTITION
   ************* Construction=PROJECT FLOOR
   ************* Construction=PROJECT FLAT ROOF
   ************* Construction=PROJECT DOOR
   ************* Construction=PROJECT EXTERNAL WINDOW
   ** Warning ** Calculated design heating load for zone=17JZCMFRF5TOFTUTIDA0D3 is zero.
   **   ~~~   ** Check Sizing:Zone and ZoneControl:Thermostat inputs.
   ** Warning ** Calculated design heating load for zone=3$F2P7VYLB7EOX67SA_ZKE is zero.
   **   ~~~   ** Check Sizing:Zone and ZoneControl:Thermostat inputs.
   ** Warning ** UpdateZoneSizing: Cooling supply air temperature (calculated) within 5C of zone temperature
   **   ~~~   ** ...check zone thermostat set point and design supply air temperatures
   **   ~~~   ** ...zone name = 3$F2P7VYLB7EOX67SA_ZKE
   **   ~~~   ** ...design sensible cooling load = 1068.22 W
   **   ~~~   ** ...thermostat set point temp    = 0.000 C
   **   ~~~   ** ...zone temperature             = 15.000 C
   **   ~~~   ** ...supply air temperature       = 13.000 C
   **   ~~~   ** ...temperature difference       = -2.00012 C
   **   ~~~   ** ...calculated volume flow rate  = 0.44730 m3/s
   **   ~~~   ** ...calculated mass flow rate    = 0.52403 kg/s
   ** Warning ** SizePurchasedAir: : Potential issue with equipment sizing for ZoneHVAC:IdealLoadsAirSystem 17JZCMFRF5TOFTUTIDA0D3 IDEAL LOADS AIR SYSTEM
   **   ~~~   ** ...Rated Total Heating Capacity = 0.00 [W]
   **   ~~~   ** ...Capacity used to size child component set to 0 [W]
   ** Warning ** SizePurchasedAir: : Potential issue with equipment sizing for ZoneHVAC:IdealLoadsAirSystem 3$F2P7VYLB7EOX67SA_ZKE IDEAL LOADS AIR SYSTEM
   **   ~~~   ** ...Rated Total Heating Capacity = 0.00 [W]
   **   ~~~   ** ...Capacity used to size child component set to 0 [W]
   ************* Testing Individual Branch Integrity
   ************* All Branches passed integrity testing
   ************* Testing Individual Supply Air Path Integrity
   ************* All Supply Air Paths passed integrity testing
   ************* Testing Individual Return Air Path Integrity
   ************* All Return Air Paths passed integrity testing
   ************* No node connection errors were found.
   ************* Beginning Simulation
   ************* Simulation Error Summary *************
   ************* There are 53 unused schedules in input.
   ************* Use Output:Diagnostics,DisplayUnusedSchedules; to see them.
   *************
   ************* ===== Final Error Summary =====
   ************* The following error categories occurred.  Consider correcting or noting.
   ************* Nominally Unused Constructions
   ************* ..The nominally unused constructions warning is provided to alert you to potential conditions that can cause
   ************* ..extra time during simulation. Each construction is calculated by the algorithm indicated in the HeatBalanceAlgorithm
   ************* ..object. You may remove the constructions indicated (when you use the DisplayExtraWarnings option).
   *************
   ************* EnergyPlus Warmup Error Summary. During Warmup: 0 Warning; 0 Severe Errors.
   ************* EnergyPlus Sizing Error Summary. During Sizing: 10 Warning; 0 Severe Errors.
   ************* EnergyPlus Completed Successfully-- 11 Warning; 0 Severe Errors; Elapsed Time=00hr 00min 18.70sec
